data/case22.py
# -*- coding: utf-8 -*-
"""
Created on Wed Oct 18 11:02:21 2023

@author: ULRICH_LUMENDO
"""
from numpy import array
def case22():
    ppc = {"version": '2'}
    ppc["baseMVA"] = 1
    ppc["bus"] = array([[1,  3,  0,  0,  0,  0,  1,  1,  0,  11,  1,  1,  1],
      [2,  1,  16.78,  20.91,  0,  0,  1,  1,  0,  11,  1,  1.1,  0.9],
      [3,  1,  16.78,  20.91,  0,  0,  1,  1,  0,  11,  1,  1.1,  0.9],
      [4,  1,  33.8,  37.32,  0,  0,  1,  1,  0,  11,  1,  1.1,  0.9],
      [5,  1,  14.56,  12.52,  0,  0,  1,  1,  0,  11,  1,  1.1,  0.9],
      [6,  1,  10.49,  14.21,  0,  0,  1,  1,  0,  11,  1,  1.1,  0.9],
      [7,  1,  8.821,  11.66,  0,  0,  1,  1,  0,  11,  1,  1.1,  0.9],
      [8,  1,  14.35,  18.59,  0,  0,  1,  1,  0,  11,  1,  1.1,  0.9],
      [9,  1,  19.31,  25.87,  0,  0,  1,  1,  0,  11,  1,  1.1,  0.9],
      [10,  1,  14.35,  18.59,  0,  0,  1,  1,  0,  11,  1,  1.1,  0.9],
      [11,  1,  16.27,  19.48,  0,  0,  1,  1,  0,  11,  1,  1.1,  0.9],
      [12,  1,  16.27,  19.48,  0,  0,  1,  1,  0,  11,  1,  1.1,  0.9],
      [13,  1,  82.13,  71.65,  0,  0,  1,  1,  0,  11,  1,  1.1,  0.9],
      [14,  1,  34.71,  30.12,  0,  0,  1,  1,  0,  11,  1,  1.1,  0.9],
      [15,  1,  34.71,  30.12,  0,  0,  1,  1,  0,  11,  1,  1.1,  0.9],
      [16,  1,  80.31,  70.12,  0,  0,  1,  1,  0,  11,  1,  1.1,  0.9],
      [17,  1,  49.62,  47.82,  0,  0,  1,  1,  0,  11,  1,  1.1,  0.9],
      [18,  1,  49.62,  47.82,  0,  0,  1,  1,  0,  11,  1,  1.1,  0.9],
      [19,  1,  43.77,  38.93,  0,  0,  1,  1,  0,  11,  1,  1.1,  0.9],
      [20,  1,  37.32,  35.96,  0,  0,  1,  1,  0,  11,  1,  1.1,  0.9],
      [21,  1,  37.32,  35.96,  0,  0,  1,  1,  0,  11,  1,  1.1,  0.9],
      [22,  1,  31.02,  29.36,  0,  0,  1,  1,  0,  11,  1,  1.1,  0.9]
    ])
    
   
    ppc["gen"] = array([[
    1,  0,  0,  10,  -10,  1,  100,  1,  10,  0,  0,  0,  0,  0,  0,  0,  0,  0,  0,  0,  0
    ]])
    
    
    ppc["branch"] = array([
      [1,  2,  0.3664,  0.1807,  0,  0,  0,  0,  0,  0,  1,  -360,  360],  
      [2,  3,  0.0547,  0.0282,  0,  0,  0,  0,  0,  0,  1,  -360,  360],  
      [2,  4,  0.5416,  0.2789,  0,  0,  0,  0,  0,  0,  1,  -360,  360],  
      [4,  5,  0.193,  0.099,  0,  0,  0,  0,  0,  0,  1,  -360,  360],  
      [4,  9,  0.7431,  0.3827,  0,  0,  0,  0,  0,  0,  1,  -360,  360],  
      [5,  6,  1.311,  0.6752,  0,  0,  0,  0,  0,  0,  1,  -360,  360],  
      [6,  7,  0.0598,  0.0308,  0,  0,  0,  0,  0,  0,  1,  -360,  360],  
      [6,  8,  0.2905,  0.1496,  0,  0,  0,  0,  0,  0,  1,  -360,  360],  
      [9,  10,  0.0547,  0.0282,  0,  0,  0,  0,  0,  0,  1,  -360,  360],  
      [9,  11,  0.675,  0.3481,  0,  0,  0,  0,  0,  0,  1,  -360,  360],  
      [11,  12,  0.0547,  0.0282,  0,  0,  0,  0,  0,  0,  1,  -360,  360],  
      [11,  13,  0.3942,  0.203,  0,  0,  0,  0,  0,  0,  1,  -360,  360],  
      [13,  14,  1.046,  0.5388,  0,  0,  0,  0,  0,  0,  1,  -360,  360],  
      [14,  15,  0.022,  0.0116,  0,  0,  0,  0,  0,  0,  1,  -360,  360],  
      [14,  16,  0.0547,  0.0282,  0,  0,  0,  0,  0,  0,  1,  -360,  360],  
      [16,  17,  0.3212,  0.1654,  0,  0,  0,  0,  0,  0,  1,  -360,  360],  
      [17,  18,  0.0949,  0.0488,  0,  0,  0,  0,  0,  0,  1,  -360,  360],  
      [17,  19,  0.574,  0.2959,  0,  0,  0,  0,  0,  0,  1,  -360,  360],  
      [19,  20,  0.1292,  0.066,  0,  0,  0,  0,  0,  0,  1,  -360,  360],  
      [20,  21,  0.0871,  0.045,  0,  0,  0,  0,  0,  0,  1,  -360,  360],  
      [20,  22,  0.5329,  0.2744,  0,  0,  0,  0,  0,  0,  1,  -360,  360]  
    ])
    
    return ppc
